data/D022565/LineCodes.dss
New Linecode.38_HD_CU_3 units=km nphases=3 Faultrate=0.1 Cmatrix=(2799.9999999999995 -600.0 -600.0 | -600.0 2799.9999999999995 -600.0 | -600.0 -600.0 2799.9999999999995 ) R1=0.433 R0=0.433 X1=0.378 X0=0.378 C1=0.0 C0=0.0 BaseFreq=50 normamps=400.0 emergamps=600.0
New Linecode.7/.080_CU_(7/2.0)_3 units=km nphases=3 Faultrate=0.1 Cmatrix=(2799.9999999999995 -600.0 -600.0 | -600.0 2799.9999999999995 -600.0 | -600.0 -600.0 2799.9999999999995 ) R1=0.519 R0=0.552 X1=0.254 X0=0.271 C1=0.0 C0=0.0 BaseFreq=50 normamps=400.0 emergamps=600.0
New Linecode.7/4.5_AAC_-_MERCURY_3 units=km nphases=3 Faultrate=0.1 Cmatrix=(2799.9999999999995 -600.0 -600.0 | -600.0 2799.9999999999995 -600.0 | -600.0 -600.0 2799.9999999999995 ) R1=0.258 R0=0.258 X1=0.34 X0=0.34 C1=0.0 C0=0.0 BaseFreq=50 normamps=400.0 emergamps=600.0
New Linecode.unknown_linecode_3 units=km nphases=3 Faultrate=0.1 Cmatrix=(2799.9999999999995 -600.0 -600.0 | -600.0 2799.9999999999995 -600.0 | -600.0 -600.0 2799.9999999999995 ) R1=0.0 R0=0.0 X1=0.0 X0=0.0 C1=0.0 C0=0.0 BaseFreq=50 normamps=400.0 emergamps=600.0
